#======================================================================
# CRYSTAL DATA
#----------------------------------------------------------------------
data_VESTA_phase_1

_chemical_name_common                  'Mn0.94 Sb2.067 Te4'
_cell_length_a                         14.712400
_cell_length_b                         8.494200
_cell_length_c                         13.849700
_cell_angle_alpha                      90.000000
_cell_angle_beta                       100.197899
_cell_angle_gamma                      90.000000
_cell_volume                           1703.454979
_space_group_name_H-M_alt              'P 1'
_space_group_IT_number                 1

loop_
_space_group_symop_operation_xyz
   'x, y, z'

loop_
   _atom_site_label
   _atom_site_occupancy
   _atom_site_fract_x
   _atom_site_fract_y
   _atom_site_fract_z
   _atom_site_adp_type
   _atom_site_U_iso_or_equiv
   _atom_site_type_symbol
   Te1        1.0     0.184155     0.250000     0.604930    Uiso  ? Te
   Te2        1.0     0.815845     0.750000     0.395070    Uiso  ? Te
   Te3        1.0     0.815845     0.250000     0.395070    Uiso  ? Te
   Te4        1.0     0.184155     0.750000     0.604930    Uiso  ? Te
   Te5        1.0     0.434155     0.500000     0.604930    Uiso  ? Te
   Te6        1.0     0.065845     0.000000     0.395070    Uiso  ? Te
   Te7        1.0     0.065845     0.500000     0.395070    Uiso  ? Te
   Te8        1.0     0.434155     0.000000     0.604930    Uiso  ? Te
   Te9        1.0     0.684155     0.250000     0.604930    Uiso  ? Te
   Te10       1.0     0.315845     0.750000     0.395070    Uiso  ? Te
   Te11       1.0     0.315845     0.250000     0.395070    Uiso  ? Te
   Te12       1.0     0.684155     0.750000     0.604930    Uiso  ? Te
   Te13       1.0     0.934155     0.500000     0.604930    Uiso  ? Te
   Te14       1.0     0.565845     0.000000     0.395070    Uiso  ? Te
   Te15       1.0     0.565845     0.500000     0.395070    Uiso  ? Te
   Te16       1.0     0.934155     0.000000     0.604930    Uiso  ? Te
   Te17       1.0     0.895930     0.250000     0.875590    Uiso  ? Te
   Te18       1.0     0.104070     0.750000     0.124410    Uiso  ? Te
   Te19       1.0     0.104070     0.250000     0.124410    Uiso  ? Te
   Te20       1.0     0.895930     0.750000     0.875590    Uiso  ? Te
   Te21       1.0     0.145930     0.500000     0.875590    Uiso  ? Te
   Te22       1.0     0.354070     0.000000     0.124410    Uiso  ? Te
   Te23       1.0     0.354070     0.500000     0.124410    Uiso  ? Te
   Te24       1.0     0.145930     0.000000     0.875590    Uiso  ? Te
   Te25       1.0     0.395930     0.250000     0.875590    Uiso  ? Te
   Te26       1.0     0.604070     0.750000     0.124410    Uiso  ? Te
   Te27       1.0     0.604070     0.250000     0.124410    Uiso  ? Te
   Te28       1.0     0.395930     0.750000     0.875590    Uiso  ? Te
   Te29       1.0     0.645930     0.500000     0.875590    Uiso  ? Te
   Te30       1.0     0.854070     0.000000     0.124410    Uiso  ? Te
   Te31       1.0     0.854070     0.500000     0.124410    Uiso  ? Te
   Te32       1.0     0.645930     0.000000     0.875590    Uiso  ? Te
   Mn1        1.0     0.287295     0.500000     0.723760    Uiso  ? Mn
   Mn2        1.0     0.712705     0.500000     0.276240    Uiso  ? Mn
   Mn3        1.0     0.750000     0.250000     0.000000    Uiso  ? Mn
   Mn4        1.0     0.250000     0.750000     0.000000    Uiso  ? Mn
   Mn5        1.0     0.250000     0.250000     0.000000    Uiso  ? Mn
   Mn6        1.0     0.750000     0.750000     0.000000    Uiso  ? Mn
   Mn7        1.0     0.000000     0.000000     0.000000    Uiso  ? Mn
   Sb1        1.0     0.037295     0.250000     0.723760    Uiso  ? Sb
   Sb2        1.0     0.962705     0.750000     0.276240    Uiso  ? Sb
   Sb3        1.0     0.962705     0.250000     0.276240    Uiso  ? Sb
   Sb4        1.0     0.037295     0.750000     0.723760    Uiso  ? Sb
   Sb5        1.0     0.212705     0.000000     0.276240    Uiso  ? Sb
   Sb6        1.0     0.212705     0.500000     0.276240    Uiso  ? Sb
   Sb7        1.0     0.287295     0.000000     0.723760    Uiso  ? Sb
   Sb8        1.0     0.537295     0.250000     0.723760    Uiso  ? Sb
   Sb9        1.0     0.462705     0.750000     0.276240    Uiso  ? Sb
   Sb10       1.0     0.462705     0.250000     0.276240    Uiso  ? Sb
   Sb11       1.0     0.537295     0.750000     0.723760    Uiso  ? Sb
   Sb12       1.0     0.787295     0.500000     0.723760    Uiso  ? Sb
   Sb13       1.0     0.712705     0.000000     0.276240    Uiso  ? Sb
   Sb14       1.0     0.787295     0.000000     0.723760    Uiso  ? Sb
   Sb15       1.0     0.000000     0.500000     0.000000    Uiso  ? Sb
   Sb16       1.0     0.500000     0.000000     0.000000    Uiso  ? Sb
   Sb17       1.0     0.500000     0.500000     0.000000    Uiso  ? Sb
